10

O       2.007445678397338      0.047872900679148      0.235675903508846
C       0.543382564781766     -0.048745349920793      0.223222388593098
C      -2.634608252048757      0.075391198880685     -0.163541555793174
H       2.279513597113563      0.621489345834223     -0.493069489209190
H      -3.102141502588031      1.086190639381393     -0.104120430522821
H      -3.016937114005785     -0.346697106505921     -1.122409886215624
H      -3.157019540587418     -0.515293225866083      0.624078371857676
H       0.057512809851874      0.905052749284220      0.345702272526312
H       0.263184161114419     -0.680683946313851      1.048123586797752
H       0.161681384186241     -0.484386565957436     -0.685801809360624
