10

O       2.303431448600000      0.014295973700000      0.271790392000000
C      -0.402659224300000      0.007259028300000      0.084145973000000
C      -1.944734279400000      0.003239771400000     -0.022771154100000
H       2.535681498200000      0.637636438300000     -0.494763700300000
H      -2.351070771400000      1.004850339500000      0.103046916700000
H      -2.271529565900000     -0.364322172200000     -0.993477379500000
H      -2.396646441300000     -0.631504318700000      0.737013298900000
H       0.051144409600000      0.634748434800000     -0.666265158400000
H      -0.027261775600000      0.376660221800000      1.023617517200000
H       0.050764701700000     -0.960763717100000     -0.047435705700000
