16

C       0.000000000000000      0.000000000000000      0.000000000000000
C       1.320041594000000      0.000000000000000      0.000000000000000
C       2.202910226421121      0.000000000000000     -1.185757909777197
C       1.824461628025933      0.000000000000000     -2.450386886734385
H       1.834551934537891     -0.000000014068722      0.943885704080080
H       3.254680841216207     -0.000000000000000     -0.963452507360235
H      -0.578585647438545      0.000000000000000     -0.903836233377380
H      -0.556093469811303      0.000000000000000      0.917306567748230
H       2.543832567078110     -0.000000000000000     -3.246123484066439
H       0.792689314757427      0.000000000000000     -2.745559945509871
C      -2.636568025963680      0.000000000000000     -4.686872636397689
C      -3.421787588848555      0.000000000000000     -3.632266839308838
H      -3.028435554470604     -0.000000000000000     -5.686374650456981
H      -1.566497056579297      0.000000000000000     -4.598710056251383
H      -4.491678646791234     -0.000000000000000     -3.721135134216656
H      -3.030544469957889      0.000000014369405     -2.632390160387495
