10
Reactant:
H       0.000000      0.000000      0.000000
O       1.014938      0.000000      0.000000
C       1.496777      0.000000     -2.669460
H       0.440785     -0.003278     -2.451131
H       1.893557     -0.856157     -2.150281
H       1.888166      0.859044     -2.150970
C       1.771369     -0.000001     -4.190658
H       1.344224     -0.879590     -4.668186
H       2.838464      0.003204     -4.404426
H       1.338747      0.876342     -4.669229
