16

C       0.000000000000000      0.000000000000000      0.000000000000000
C       1.524913882110000      0.000000000000000      0.000000000000000
C       2.254775965006967      0.000000000000000     -1.087714539741622
C       1.676647643943422      0.006203703961993     -2.498776629357041
H       1.997321667803772     -0.009960134851336      0.975188022615594
H       3.336290198936181      0.005257960541885     -1.020213575846569
H      -0.358514290934855     -0.989462686304332      0.287037848181610
H      -0.364906937225615      0.695866925377707      0.754178275812029
H       2.233860297004763     -0.689596063865503     -3.124511109875634
H       1.809513827288970      0.996574066647314     -2.936355534474631
C       0.178652069069244     -0.367731135712287     -2.504384027649910
C      -0.571758084225229      0.378919385381776     -1.383254660723042
H      -0.257721845582511     -0.128900367035685     -3.471874349345390
H       0.072931331804038     -1.440083825506558     -2.353158567962229
H      -1.633267937336454      0.143788922257293     -1.420799508450485
H      -0.468267550999208      1.451268752533537     -1.536036617250164
