15

C       0.000000      0.000000      0.000000
C       1.527330      0.000000      0.000000
C      -0.549040      0.000000     -1.431517
C      -0.549293     -1.187624      0.799025
H       1.911398     -0.894362     -0.475676
H       1.889227      0.871735     -0.530081
H       1.889204      0.047760      1.019136
O      -0.358505      1.241016      0.660792
H      -1.320651      1.328401      0.707103
H      -0.192269     -1.135261      1.820101
H      -1.635315     -1.169422      0.813627
H      -0.231851     -2.125586      0.359724
H      -0.191601      0.876182     -1.958172
H      -1.635051      0.022702     -1.424702
H      -0.231859     -0.888309     -1.964283
