7

Cu      4.135371267700193      2.372592174267462      9.609886650797065
Cu      7.144747788399521      2.373323720259737      9.610909477731221
Cu      2.824024020061379      5.021963751264534      9.826358617063464
Cu      2.824232577726945     -0.219895730090521      9.821074800058231
C       5.637024543676905      2.457190440293160     11.523136426813704
H       5.659168935537574      3.390273756791216     11.822195557472174
H       5.650882024291839      1.505573715270578     11.756878103213385
