5

Pd      0.075997088872981      0.043743311992108      0.448943653041745
Pd      1.397994068249629      2.333125626124410      0.450156470101123
Pd      2.719831549015632      0.044589167072776      0.448799841454842
Pd      4.194286833925090      2.420660772574881      1.453118684508331
H       1.397936751897763      0.807335817456046      1.501049905341772
